Version 4
SHEET 1 880 680
WIRE -1776 -960 -1792 -960
WIRE -1664 -960 -1776 -960
WIRE -1584 -960 -1664 -960
WIRE -1504 -960 -1584 -960
WIRE -1424 -960 -1504 -960
WIRE -1216 -960 -1424 -960
WIRE -1008 -960 -1216 -960
WIRE -1664 -944 -1664 -960
WIRE -1584 -944 -1584 -960
WIRE -1504 -944 -1504 -960
WIRE -1424 -944 -1424 -960
WIRE -1008 -928 -1008 -960
WIRE -1792 -880 -1792 -960
WIRE -1216 -880 -1216 -960
WIRE -1664 -864 -1664 -880
WIRE -1584 -864 -1584 -880
WIRE -1424 -816 -1424 -864
WIRE -1360 -816 -1424 -816
WIRE -1008 -784 -1008 -848
WIRE -1008 -784 -1072 -784
WIRE -976 -784 -1008 -784
WIRE -848 -784 -912 -784
WIRE -656 -784 -848 -784
WIRE -576 -784 -656 -784
WIRE -848 -752 -848 -784
WIRE -656 -752 -656 -784
WIRE -1504 -704 -1504 -864
WIRE -1360 -704 -1504 -704
WIRE 240 -672 240 -688
WIRE -848 -656 -848 -672
WIRE -848 -656 -1072 -656
WIRE -656 -656 -656 -688
WIRE -848 -624 -848 -656
WIRE -1360 -592 -1456 -592
WIRE -1456 -576 -1456 -592
WIRE 240 -560 240 -592
WIRE 352 -560 240 -560
WIRE 432 -560 352 -560
WIRE 528 -560 512 -560
WIRE 240 -544 240 -560
WIRE -848 -528 -848 -544
WIRE -1216 -496 -1216 -528
WIRE 0 -496 -352 -496
WIRE 176 -496 80 -496
WIRE -1456 -480 -1456 -496
WIRE -352 -480 -352 -496
WIRE -1456 -400 -1456 -416
WIRE 240 -368 240 -448
FLAG -1792 -800 0
FLAG -1584 -864 0
FLAG -1664 -864 0
FLAG -1456 -400 0
FLAG -1216 -496 0
FLAG -848 -528 0
FLAG -656 -656 0
FLAG -576 -784 VCC
FLAG -1776 -960 VBAT
FLAG -352 -400 0
FLAG 240 -368 0
FLAG 240 -688 VBAT
FLAG 352 -560 V_TEST
SYMBOL PowerProducts\\ADP1613 -1216 -704 R0
SYMATTR InstName U3
SYMBOL voltage -1792 -896 R0
WINDOW 3 -202 133 Left 2
WINDOW 123 0 0 Left 0
WINDOW 39 0 0 Left 0
SYMATTR InstName V1
SYMATTR Value PULSE(0 3 0 50u 10n 5000)
SYMBOL cap -1680 -944 R0
SYMATTR InstName C1
SYMATTR Value 10µ
SYMBOL cap -1600 -944 R0
SYMATTR InstName C2
SYMATTR Value 100n
SYMBOL res -1440 -960 R0
SYMATTR InstName R1
SYMATTR Value 10k
SYMBOL ind -1024 -944 R0
SYMATTR InstName L1
SYMATTR Value 4.7µ
SYMBOL res -1520 -960 R0
SYMATTR InstName R2
SYMATTR Value 22k
SYMBOL res -1472 -592 R0
SYMATTR InstName R3
SYMATTR Value 12k
SYMBOL cap -1472 -480 R0
SYMATTR InstName C3
SYMATTR Value 12n
SYMBOL res -864 -768 R0
SYMATTR InstName R4
SYMATTR Value 30k
SYMBOL res -864 -640 R0
SYMATTR InstName R5
SYMATTR Value 10k
SYMBOL cap -672 -752 R0
SYMATTR InstName C4
SYMATTR Value 4.7µ
SYMBOL schottky -976 -768 R270
WINDOW 0 32 32 VTop 2
WINDOW 3 0 32 VBottom 2
SYMATTR InstName D1
SYMATTR Value RB050LAM-40
SYMATTR Description Diode
SYMATTR Type diode
SYMBOL voltage -352 -496 R0
WINDOW 123 0 0 Left 0
WINDOW 39 0 0 Left 0
SYMATTR InstName V2
SYMATTR Value PULSE(0 3 1u 10n 10n 500n 1u)
SYMBOL res 96 -512 R90
WINDOW 0 0 56 VBottom 2
WINDOW 3 32 56 VTop 2
SYMATTR InstName R6
SYMATTR Value 100
SYMBOL npn 176 -544 R0
SYMATTR InstName Q1
SYMATTR Value 2SC3837K
SYMBOL res 224 -688 R0
SYMATTR InstName R7
SYMATTR Value 100k
SYMBOL res 528 -576 R90
WINDOW 0 0 56 VBottom 2
WINDOW 3 32 56 VTop 2
SYMATTR InstName R8
SYMATTR Value 50
TEXT -1890 -382 Left 2 !.tran 5m
